24000
 generated by VMD
  P        101.630005      118.310005       93.129997
  O        102.290001      120.769997       93.699997
  N        102.010002      123.269997       95.019997
  O        101.959999      123.470001       98.000000
  O        101.500000      122.159996      100.319992
  N         98.699997      121.750000      102.029999
  O         97.460007      119.280006      102.019997
  O         96.940002      116.809998      101.529999
  N         97.250000      115.279999       98.809998
  O         98.430008      117.279999       96.829994
  O         98.669998      119.720001       96.990005
  N         96.850006      121.699997       94.930000
  O         95.470001      120.089996       93.500000
  O         95.570000      117.470001       92.989998
  N         94.430000      116.049995       90.830002
  O         93.559998      118.059998       88.489998
  O         92.529999      120.620003       88.750000
  N         90.430000      121.780006       90.459991
  O         90.299995      120.540001       92.889999
  O         90.600006      118.310005       94.220001
  N         88.369995      116.289993       94.729996
  O         85.729996      117.830002       94.449997
  O         83.219994      118.000000       94.750000
  N         81.020004      116.260002       94.020004
  O         78.979996      116.940002       92.010002
  O         76.599998      117.169998       90.600006
  N         73.919998      115.709999       90.880005
  O         71.810005      117.880005       91.650002
  O         69.570000      118.940002       92.729996
  B         67.480003      120.800003       92.690002
  P        116.879997       77.529999       59.349998
  O        118.830002       78.080002       61.110001
  N        121.320000       79.400002       62.290001
  O        123.990005       78.509995       61.250000
  O        126.680000       78.270004       62.329998
  N        128.649994       78.410004       64.629997
  O        129.020004       80.709999       66.490005
  O        130.839996       82.259995       67.330002
  N        133.350006       82.150002       69.190002
  O        133.850006       84.589996       70.360001
  O        133.160004       86.860001       69.320000
  N        131.389999       87.830002       67.099998
  O        128.710007       86.879997       67.800003
  O        126.379997       87.770004       67.620003
  N        124.160004       89.759995       67.099998
  O        123.199997       89.320000       64.369995
  O        121.680000       87.270004       63.369999
  N        119.830002       86.220001       61.420002
  O        120.080002       83.440002       60.349998
  O        119.820007       82.080002       58.070000
  N        120.940002       80.089996       56.090004
  O        123.900002       79.559998       56.399998
  O        125.589996       77.650002       56.339996
  N        128.399994       77.459999       55.830002
  O        129.410004       80.129997       54.599998
  O        128.000000       82.270004       54.099998
  N        127.250000       84.290001       52.410004
  O        128.660004       83.879997       49.660000
  O        127.779999       83.500000       47.189999
  B        126.320000       84.570000       45.100002

